<?xml version='1.0' encoding='UTF-8'?>
<routes xmlns:xsi="http://www.w3.org/2001/XMLSchema-instance" xsi:noNamespaceSchemaLocation="http://sumo.dlr.de/xsd/routes_file.xsd">
    <vType id="scenario8_collision_car" vClass="passenger" guiShape="passenger" length="5.00" width="1.80" minGap="2.50" maxSpeed="11.11" speedFactor="1.0" speedDev="0.05" accel="3.0" decel="4.5" emergencyDecel="9.0" apparentDecel="4.5" tau="1.0" sigma="0.2" lcStrategic="1" lcCooperative="1" lcSpeedGain="1" lcKeepRight="1" lcAssertive="1" jmIgnoreFoeProb="0" jmIgnoreJunctionFoeProb="0" jmIgnoreFoeSpeed="0" jmIgnoreKeepClearTime="0" jmStoplineGap="2.5" collisionMinGapFactor="1" />
    <vehicle id="targeted_vehicle_001" type="scenario8_collision_car" depart="4.0" departLane="1" departPos="0" departSpeed="max" color="red">
        <route edges="179750964#5 858712304#0" />
    </vehicle>
    <vehicle id="targeted_vehicle_002" type="scenario8_collision_car" depart="7.5" departLane="0" departPos="0" departSpeed="max" color="orange">
        <route edges="179750964#5 179750980#0" />
    </vehicle>
    <vehicle id="targeted_vehicle_003" type="scenario8_collision_car" depart="10.8" departLane="0" departPos="0" departSpeed="max" color="blue">
        <route edges="1274037341#1 179750980#0" />
    </vehicle>
    <vehicle id="targeted_vehicle_004" type="scenario8_collision_car" depart="18.0" departLane="0" departPos="0" departSpeed="max" color="magenta">
        <route edges="1274037341#1 858712304#0" />
    </vehicle>
    <vehicle id="targeted_vehicle_005" type="scenario8_collision_car" depart="20.4" departLane="0" departPos="0" departSpeed="max" color="blue">
        <route edges="1274037341#1 179750980#0" />
    </vehicle>
    <vehicle id="targeted_vehicle_006" type="scenario8_collision_car" depart="27.7" departLane="0" departPos="0" departSpeed="max" color="cyan">
        <route edges="1274037341#1 409634167#3" />
    </vehicle>
    <vehicle id="targeted_vehicle_007" type="scenario8_collision_car" depart="29.4" departLane="0" departPos="0" departSpeed="max" color="blue">
        <route edges="1274037341#1 179750980#0" />
    </vehicle>
    <vehicle id="targeted_vehicle_008" type="scenario8_collision_car" depart="34.1" departLane="0" departPos="0" departSpeed="max" color="magenta">
        <route edges="1274037341#1 858712304#0" />
    </vehicle>
    <vehicle id="targeted_vehicle_009" type="scenario8_collision_car" depart="35.9" departLane="1" departPos="0" departSpeed="max" color="red">
        <route edges="179750964#5 858712304#0" />
    </vehicle>
    <vehicle id="targeted_vehicle_010" type="scenario8_collision_car" depart="37.9" departLane="0" departPos="0" departSpeed="max" color="blue">
        <route edges="1274037341#1 179750980#0" />
    </vehicle>
    <vehicle id="targeted_vehicle_011" type="scenario8_collision_car" depart="45.0" departLane="0" departPos="0" departSpeed="max" color="blue">
        <route edges="1274037341#1 179750980#0" />
    </vehicle>
    <vehicle id="targeted_vehicle_012" type="scenario8_collision_car" depart="48.6" departLane="0" departPos="0" departSpeed="max" color="magenta">
        <route edges="1274037341#1 858712304#0" />
    </vehicle>
    <vehicle id="targeted_vehicle_013" type="scenario8_collision_car" depart="50.9" departLane="0" departPos="0" departSpeed="max" color="blue">
        <route edges="1274037341#1 179750980#0" />
    </vehicle>
    <vehicle id="targeted_vehicle_014" type="scenario8_collision_car" depart="55.0" departLane="1" departPos="0" departSpeed="max" color="red">
        <route edges="179750964#5 858712304#0" />
    </vehicle>
    <vehicle id="targeted_vehicle_015" type="scenario8_collision_car" depart="57.2" departLane="0" departPos="0" departSpeed="max" color="blue">
        <route edges="1274037341#1 179750980#0" />
    </vehicle>
    <vehicle id="targeted_vehicle_016" type="scenario8_collision_car" depart="65.9" departLane="1" departPos="0" departSpeed="max" color="green">
        <route edges="409634167#1 179750980#0" />
    </vehicle>
    <vehicle id="targeted_vehicle_017" type="scenario8_collision_car" depart="69.3" departLane="0" departPos="0" departSpeed="max" color="yellow">
        <route edges="409634167#1 409634167#3" />
    </vehicle>
    <vehicle id="targeted_vehicle_018" type="scenario8_collision_car" depart="70.3" departLane="0" departPos="0" departSpeed="max" color="cyan">
        <route edges="1274037341#1 409634167#3" />
    </vehicle>
    <vehicle id="targeted_vehicle_019" type="scenario8_collision_car" depart="71.3" departLane="0" departPos="0" departSpeed="max" color="blue">
        <route edges="1274037341#1 179750980#0" />
    </vehicle>
    <vehicle id="targeted_vehicle_020" type="scenario8_collision_car" depart="76.1" departLane="0" departPos="0" departSpeed="max" color="cyan">
        <route edges="1274037341#1 409634167#3" />
    </vehicle>
    <vehicle id="targeted_vehicle_021" type="scenario8_collision_car" depart="78.0" departLane="1" departPos="0" departSpeed="max" color="red">
        <route edges="179750964#5 858712304#0" />
    </vehicle>
    <vehicle id="targeted_vehicle_022" type="scenario8_collision_car" depart="80.1" departLane="0" departPos="0" departSpeed="max" color="blue">
        <route edges="1274037341#1 179750980#0" />
    </vehicle>
    <vehicle id="targeted_vehicle_023" type="scenario8_collision_car" depart="86.9" departLane="0" departPos="0" departSpeed="max" color="cyan">
        <route edges="1274037341#1 409634167#3" />
    </vehicle>
    <vehicle id="targeted_vehicle_024" type="scenario8_collision_car" depart="90.3" departLane="0" departPos="0" departSpeed="max" color="cyan">
        <route edges="1274037341#1 409634167#3" />
    </vehicle>
    <vehicle id="targeted_vehicle_025" type="scenario8_collision_car" depart="94.5" departLane="0" departPos="0" departSpeed="max" color="magenta">
        <route edges="1274037341#1 858712304#0" />
    </vehicle>
    <vehicle id="targeted_vehicle_026" type="scenario8_collision_car" depart="97.5" departLane="1" departPos="0" departSpeed="max" color="red">
        <route edges="179750964#5 858712304#0" />
    </vehicle>
    <vehicle id="targeted_vehicle_027" type="scenario8_collision_car" depart="98.8" departLane="0" departPos="0" departSpeed="max" color="yellow">
        <route edges="409634167#1 409634167#3" />
    </vehicle>
    <vehicle id="targeted_vehicle_028" type="scenario8_collision_car" depart="99.7" departLane="0" departPos="0" departSpeed="max" color="blue">
        <route edges="1274037341#1 179750980#0" />
    </vehicle>
    <vehicle id="targeted_vehicle_029" type="scenario8_collision_car" depart="105.4" departLane="0" departPos="0" departSpeed="max" color="cyan">
        <route edges="1274037341#1 409634167#3" />
    </vehicle>
    <vehicle id="targeted_vehicle_030" type="scenario8_collision_car" depart="105.8" departLane="0" departPos="0" departSpeed="max" color="orange">
        <route edges="179750964#5 179750980#0" />
    </vehicle>
    <vehicle id="targeted_vehicle_031" type="scenario8_collision_car" depart="108.0" departLane="1" departPos="0" departSpeed="max" color="red">
        <route edges="179750964#5 858712304#0" />
    </vehicle>
    <vehicle id="targeted_vehicle_032" type="scenario8_collision_car" depart="116.1" departLane="1" departPos="0" departSpeed="max" color="green">
        <route edges="409634167#1 179750980#0" />
    </vehicle>
    <vehicle id="targeted_vehicle_033" type="scenario8_collision_car" depart="119.3" departLane="1" departPos="0" departSpeed="max" color="green">
        <route edges="409634167#1 179750980#0" />
    </vehicle>
    <vehicle id="targeted_vehicle_034" type="scenario8_collision_car" depart="121.0" departLane="1" departPos="0" departSpeed="max" color="red">
        <route edges="179750964#5 858712304#0" />
    </vehicle>
    <vehicle id="targeted_vehicle_035" type="scenario8_collision_car" depart="123.1" departLane="0" departPos="0" departSpeed="max" color="blue">
        <route edges="1274037341#1 179750980#0" />
    </vehicle>
    <vehicle id="targeted_vehicle_036" type="scenario8_collision_car" depart="126.6" departLane="0" departPos="0" departSpeed="max" color="orange">
        <route edges="179750964#5 179750980#0" />
    </vehicle>
    <vehicle id="targeted_vehicle_037" type="scenario8_collision_car" depart="134.9" departLane="1" departPos="0" departSpeed="max" color="red">
        <route edges="179750964#5 858712304#0" />
    </vehicle>
    <vehicle id="targeted_vehicle_038" type="scenario8_collision_car" depart="135.5" departLane="0" departPos="0" departSpeed="max" color="cyan">
        <route edges="1274037341#1 409634167#3" />
    </vehicle>
    <vehicle id="targeted_vehicle_039" type="scenario8_collision_car" depart="141.8" departLane="1" departPos="0" departSpeed="max" color="red">
        <route edges="179750964#5 858712304#0" />
    </vehicle>
    <vehicle id="targeted_vehicle_040" type="scenario8_collision_car" depart="144.2" departLane="0" departPos="0" departSpeed="max" color="blue">
        <route edges="1274037341#1 179750980#0" />
    </vehicle>
    <vehicle id="targeted_vehicle_041" type="scenario8_collision_car" depart="147.0" departLane="1" departPos="0" departSpeed="max" color="red">
        <route edges="179750964#5 858712304#0" />
    </vehicle>
    <vehicle id="targeted_vehicle_042" type="scenario8_collision_car" depart="156.5" departLane="0" departPos="0" departSpeed="max" color="magenta">
        <route edges="1274037341#1 858712304#0" />
    </vehicle>
    <vehicle id="targeted_vehicle_043" type="scenario8_collision_car" depart="162.1" departLane="1" departPos="0" departSpeed="max" color="green">
        <route edges="409634167#1 179750980#0" />
    </vehicle>
    <vehicle id="targeted_vehicle_044" type="scenario8_collision_car" depart="162.5" departLane="0" departPos="0" departSpeed="max" color="magenta">
        <route edges="1274037341#1 858712304#0" />
    </vehicle>
    <vehicle id="targeted_vehicle_045" type="scenario8_collision_car" depart="163.9" departLane="1" departPos="0" departSpeed="max" color="red">
        <route edges="179750964#5 858712304#0" />
    </vehicle>
    <vehicle id="targeted_vehicle_046" type="scenario8_collision_car" depart="166.2" departLane="0" departPos="0" departSpeed="max" color="blue">
        <route edges="1274037341#1 179750980#0" />
    </vehicle>
    <vehicle id="targeted_vehicle_047" type="scenario8_collision_car" depart="168.9" departLane="0" departPos="0" departSpeed="max" color="orange">
        <route edges="179750964#5 179750980#0" />
    </vehicle>
    <vehicle id="targeted_vehicle_048" type="scenario8_collision_car" depart="175.0" departLane="0" departPos="0" departSpeed="max" color="magenta">
        <route edges="1274037341#1 858712304#0" />
    </vehicle>
    <vehicle id="targeted_vehicle_049" type="scenario8_collision_car" depart="182.0" departLane="1" departPos="0" departSpeed="max" color="green">
        <route edges="409634167#1 179750980#0" />
    </vehicle>
    <vehicle id="targeted_vehicle_050" type="scenario8_collision_car" depart="183.8" departLane="1" departPos="0" departSpeed="max" color="red">
        <route edges="179750964#5 858712304#0" />
    </vehicle>
    <vehicle id="targeted_vehicle_051" type="scenario8_collision_car" depart="186.0" departLane="0" departPos="0" departSpeed="max" color="blue">
        <route edges="1274037341#1 179750980#0" />
    </vehicle>
    <vehicle id="targeted_vehicle_052" type="scenario8_collision_car" depart="191.9" departLane="0" departPos="0" departSpeed="max" color="cyan">
        <route edges="1274037341#1 409634167#3" />
    </vehicle>
    <vehicle id="targeted_vehicle_053" type="scenario8_collision_car" depart="196.5" departLane="0" departPos="0" departSpeed="max" color="magenta">
        <route edges="1274037341#1 858712304#0" />
    </vehicle>
    <vehicle id="targeted_vehicle_054" type="scenario8_collision_car" depart="202.2" departLane="0" departPos="0" departSpeed="max" color="cyan">
        <route edges="1274037341#1 409634167#3" />
    </vehicle>
    <vehicle id="targeted_vehicle_055" type="scenario8_collision_car" depart="204.8" departLane="1" departPos="0" departSpeed="max" color="red">
        <route edges="179750964#5 858712304#0" />
    </vehicle>
    <vehicle id="targeted_vehicle_056" type="scenario8_collision_car" depart="207.1" departLane="0" departPos="0" departSpeed="max" color="blue">
        <route edges="1274037341#1 179750980#0" />
    </vehicle>
    <vehicle id="targeted_vehicle_057" type="scenario8_collision_car" depart="215.2" departLane="0" departPos="0" departSpeed="max" color="blue">
        <route edges="1274037341#1 179750980#0" />
    </vehicle>
    <vehicle id="targeted_vehicle_058" type="scenario8_collision_car" depart="215.7" departLane="1" departPos="0" departSpeed="max" color="green">
        <route edges="409634167#1 179750980#0" />
    </vehicle>
    <vehicle id="targeted_vehicle_059" type="scenario8_collision_car" depart="218.9" departLane="0" departPos="0" departSpeed="max" color="cyan">
        <route edges="1274037341#1 409634167#3" />
    </vehicle>
    <vehicle id="targeted_vehicle_060" type="scenario8_collision_car" depart="223.6" departLane="0" departPos="0" departSpeed="max" color="orange">
        <route edges="179750964#5 179750980#0" />
    </vehicle>
    <vehicle id="targeted_vehicle_061" type="scenario8_collision_car" depart="226.6" departLane="1" departPos="0" departSpeed="max" color="red">
        <route edges="179750964#5 858712304#0" />
    </vehicle>
    <vehicle id="targeted_vehicle_062" type="scenario8_collision_car" depart="228.8" departLane="0" departPos="0" departSpeed="max" color="blue">
        <route edges="1274037341#1 179750980#0" />
    </vehicle>
    <vehicle id="targeted_vehicle_063" type="scenario8_collision_car" depart="234.0" departLane="0" departPos="0" departSpeed="max" color="magenta">
        <route edges="1274037341#1 858712304#0" />
    </vehicle>
    <vehicle id="targeted_vehicle_064" type="scenario8_collision_car" depart="239.4" departLane="0" departPos="0" departSpeed="max" color="blue">
        <route edges="1274037341#1 179750980#0" />
    </vehicle>
    <vehicle id="targeted_vehicle_065" type="scenario8_collision_car" depart="245.8" departLane="1" departPos="0" departSpeed="max" color="green">
        <route edges="409634167#1 179750980#0" />
    </vehicle>
    <vehicle id="targeted_vehicle_066" type="scenario8_collision_car" depart="246.5" departLane="0" departPos="0" departSpeed="max" color="cyan">
        <route edges="1274037341#1 409634167#3" />
    </vehicle>
    <vehicle id="targeted_vehicle_067" type="scenario8_collision_car" depart="249.2" departLane="1" departPos="0" departSpeed="max" color="red">
        <route edges="179750964#5 858712304#0" />
    </vehicle>
    <vehicle id="targeted_vehicle_068" type="scenario8_collision_car" depart="251.4" departLane="0" departPos="0" departSpeed="max" color="blue">
        <route edges="1274037341#1 179750980#0" />
    </vehicle>
    <vehicle id="targeted_vehicle_069" type="scenario8_collision_car" depart="260.5" departLane="1" departPos="0" departSpeed="max" color="green">
        <route edges="409634167#1 179750980#0" />
    </vehicle>
    <vehicle id="targeted_vehicle_070" type="scenario8_collision_car" depart="261.1" departLane="0" departPos="0" departSpeed="max" color="cyan">
        <route edges="1274037341#1 409634167#3" />
    </vehicle>
    <vehicle id="targeted_vehicle_071" type="scenario8_collision_car" depart="263.6" departLane="0" departPos="0" departSpeed="max" color="blue">
        <route edges="1274037341#1 179750980#0" />
    </vehicle>
    <vehicle id="targeted_vehicle_072" type="scenario8_collision_car" depart="269.6" departLane="1" departPos="0" departSpeed="max" color="red">
        <route edges="179750964#5 858712304#0" />
    </vehicle>
    <vehicle id="targeted_vehicle_073" type="scenario8_collision_car" depart="271.7" departLane="0" departPos="0" departSpeed="max" color="blue">
        <route edges="1274037341#1 179750980#0" />
    </vehicle>
    <vehicle id="targeted_vehicle_074" type="scenario8_collision_car" depart="281.4" departLane="1" departPos="0" departSpeed="max" color="green">
        <route edges="409634167#1 179750980#0" />
    </vehicle>
    <vehicle id="targeted_vehicle_075" type="scenario8_collision_car" depart="283.7" departLane="0" departPos="0" departSpeed="max" color="orange">
        <route edges="179750964#5 179750980#0" />
    </vehicle>
    <vehicle id="targeted_vehicle_076" type="scenario8_collision_car" depart="284.2" departLane="0" departPos="0" departSpeed="max" color="yellow">
        <route edges="409634167#1 409634167#3" />
    </vehicle>
    <vehicle id="targeted_vehicle_077" type="scenario8_collision_car" depart="291.8" departLane="1" departPos="0" departSpeed="max" color="red">
        <route edges="179750964#5 858712304#0" />
    </vehicle>
    <vehicle id="targeted_vehicle_078" type="scenario8_collision_car" depart="294.1" departLane="0" departPos="0" departSpeed="max" color="blue">
        <route edges="1274037341#1 179750980#0" />
    </vehicle>
    <vehicle id="targeted_vehicle_079" type="scenario8_collision_car" depart="302.4" departLane="0" departPos="0" departSpeed="max" color="blue">
        <route edges="1274037341#1 179750980#0" />
    </vehicle>
    <vehicle id="targeted_vehicle_080" type="scenario8_collision_car" depart="302.5" departLane="0" departPos="0" departSpeed="max" color="yellow">
        <route edges="409634167#1 409634167#3" />
    </vehicle>
    <vehicle id="targeted_vehicle_081" type="scenario8_collision_car" depart="303.4" departLane="0" departPos="0" departSpeed="max" color="orange">
        <route edges="179750964#5 179750980#0" />
    </vehicle>
    <vehicle id="targeted_vehicle_082" type="scenario8_collision_car" depart="310.1" departLane="0" departPos="0" departSpeed="max" color="magenta">
        <route edges="1274037341#1 858712304#0" />
    </vehicle>
    <vehicle id="targeted_vehicle_083" type="scenario8_collision_car" depart="311.4" departLane="1" departPos="0" departSpeed="max" color="red">
        <route edges="179750964#5 858712304#0" />
    </vehicle>
    <vehicle id="targeted_vehicle_084" type="scenario8_collision_car" depart="313.4" departLane="0" departPos="0" departSpeed="max" color="blue">
        <route edges="1274037341#1 179750980#0" />
    </vehicle>
    <vehicle id="targeted_vehicle_085" type="scenario8_collision_car" depart="323.9" departLane="0" departPos="0" departSpeed="max" color="cyan">
        <route edges="1274037341#1 409634167#3" />
    </vehicle>
    <vehicle id="targeted_vehicle_086" type="scenario8_collision_car" depart="324.9" departLane="1" departPos="0" departSpeed="max" color="red">
        <route edges="179750964#5 858712304#0" />
    </vehicle>
    <vehicle id="targeted_vehicle_087" type="scenario8_collision_car" depart="330.7" departLane="0" departPos="0" departSpeed="max" color="magenta">
        <route edges="1274037341#1 858712304#0" />
    </vehicle>
    <vehicle id="targeted_vehicle_088" type="scenario8_collision_car" depart="332.9" departLane="1" departPos="0" departSpeed="max" color="red">
        <route edges="179750964#5 858712304#0" />
    </vehicle>
    <vehicle id="targeted_vehicle_089" type="scenario8_collision_car" depart="335.1" departLane="0" departPos="0" departSpeed="max" color="blue">
        <route edges="1274037341#1 179750980#0" />
    </vehicle>
    <vehicle id="targeted_vehicle_090" type="scenario8_collision_car" depart="344.1" departLane="0" departPos="0" departSpeed="max" color="yellow">
        <route edges="409634167#1 409634167#3" />
    </vehicle>
    <vehicle id="targeted_vehicle_091" type="scenario8_collision_car" depart="345.3" departLane="0" departPos="0" departSpeed="max" color="magenta">
        <route edges="1274037341#1 858712304#0" />
    </vehicle>
    <vehicle id="targeted_vehicle_092" type="scenario8_collision_car" depart="351.8" departLane="0" departPos="0" departSpeed="max" color="magenta">
        <route edges="1274037341#1 858712304#0" />
    </vehicle>
    <vehicle id="targeted_vehicle_093" type="scenario8_collision_car" depart="355.0" departLane="1" departPos="0" departSpeed="max" color="red">
        <route edges="179750964#5 858712304#0" />
    </vehicle>
    <vehicle id="targeted_vehicle_094" type="scenario8_collision_car" depart="357.2" departLane="0" departPos="0" departSpeed="max" color="blue">
        <route edges="1274037341#1 179750980#0" />
    </vehicle>
    <vehicle id="targeted_vehicle_095" type="scenario8_collision_car" depart="360.2" departLane="1" departPos="0" departSpeed="max" color="red">
        <route edges="179750964#5 858712304#0" />
    </vehicle>
    <vehicle id="targeted_vehicle_096" type="scenario8_collision_car" depart="370.0" departLane="0" departPos="0" departSpeed="max" color="orange">
        <route edges="179750964#5 179750980#0" />
    </vehicle>
    <vehicle id="targeted_vehicle_097" type="scenario8_collision_car" depart="372.1" departLane="0" departPos="0" departSpeed="max" color="yellow">
        <route edges="409634167#1 409634167#3" />
    </vehicle>
    <vehicle id="targeted_vehicle_098" type="scenario8_collision_car" depart="375.5" departLane="1" departPos="0" departSpeed="max" color="red">
        <route edges="179750964#5 858712304#0" />
    </vehicle>
    <vehicle id="targeted_vehicle_099" type="scenario8_collision_car" depart="377.9" departLane="0" departPos="0" departSpeed="max" color="blue">
        <route edges="1274037341#1 179750980#0" />
    </vehicle>
    <vehicle id="targeted_vehicle_100" type="scenario8_collision_car" depart="385.2" departLane="0" departPos="0" departSpeed="max" color="cyan">
        <route edges="1274037341#1 409634167#3" />
    </vehicle>
    <vehicle id="targeted_vehicle_101" type="scenario8_collision_car" depart="385.9" departLane="0" departPos="0" departSpeed="max" color="blue">
        <route edges="1274037341#1 179750980#0" />
    </vehicle>
    <vehicle id="targeted_vehicle_102" type="scenario8_collision_car" depart="386.9" departLane="1" departPos="0" departSpeed="max" color="red">
        <route edges="179750964#5 858712304#0" />
    </vehicle>
    <vehicle id="targeted_vehicle_103" type="scenario8_collision_car" depart="395.8" departLane="1" departPos="0" departSpeed="max" color="green">
        <route edges="409634167#1 179750980#0" />
    </vehicle>
    <vehicle id="targeted_vehicle_104" type="scenario8_collision_car" depart="395.9" departLane="1" departPos="0" departSpeed="max" color="red">
        <route edges="179750964#5 858712304#0" />
    </vehicle>
    <vehicle id="targeted_vehicle_105" type="scenario8_collision_car" depart="398.1" departLane="0" departPos="0" departSpeed="max" color="blue">
        <route edges="1274037341#1 179750980#0" />
    </vehicle>
    <vehicle id="targeted_vehicle_106" type="scenario8_collision_car" depart="405.6" departLane="0" departPos="0" departSpeed="max" color="magenta">
        <route edges="1274037341#1 858712304#0" />
    </vehicle>
    <vehicle id="targeted_vehicle_107" type="scenario8_collision_car" depart="406.7" departLane="0" departPos="0" departSpeed="max" color="blue">
        <route edges="1274037341#1 179750980#0" />
    </vehicle>
    <vehicle id="targeted_vehicle_108" type="scenario8_collision_car" depart="411.7" departLane="0" departPos="0" departSpeed="max" color="magenta">
        <route edges="1274037341#1 858712304#0" />
    </vehicle>
    <vehicle id="targeted_vehicle_109" type="scenario8_collision_car" depart="415.0" departLane="1" departPos="0" departSpeed="max" color="red">
        <route edges="179750964#5 858712304#0" />
    </vehicle>
    <vehicle id="targeted_vehicle_110" type="scenario8_collision_car" depart="418.9" departLane="1" departPos="0" departSpeed="max" color="red">
        <route edges="179750964#5 858712304#0" />
    </vehicle>
    <vehicle id="targeted_vehicle_111" type="scenario8_collision_car" depart="421.0" departLane="0" departPos="0" departSpeed="max" color="blue">
        <route edges="1274037341#1 179750980#0" />
    </vehicle>
    <vehicle id="targeted_vehicle_112" type="scenario8_collision_car" depart="425.7" departLane="1" departPos="0" departSpeed="max" color="red">
        <route edges="179750964#5 858712304#0" />
    </vehicle>
    <vehicle id="targeted_vehicle_113" type="scenario8_collision_car" depart="426.5" departLane="0" departPos="0" departSpeed="max" color="magenta">
        <route edges="1274037341#1 858712304#0" />
    </vehicle>
    <vehicle id="targeted_vehicle_114" type="scenario8_collision_car" depart="432.4" departLane="1" departPos="0" departSpeed="max" color="red">
        <route edges="179750964#5 858712304#0" />
    </vehicle>
    <vehicle id="targeted_vehicle_115" type="scenario8_collision_car" depart="433.9" departLane="0" departPos="0" departSpeed="max" color="yellow">
        <route edges="409634167#1 409634167#3" />
    </vehicle>
    <vehicle id="targeted_vehicle_116" type="scenario8_collision_car" depart="438.8" departLane="1" departPos="0" departSpeed="max" color="red">
        <route edges="179750964#5 858712304#0" />
    </vehicle>
    <vehicle id="targeted_vehicle_117" type="scenario8_collision_car" depart="441.2" departLane="0" departPos="0" departSpeed="max" color="blue">
        <route edges="1274037341#1 179750980#0" />
    </vehicle>
    <vehicle id="targeted_vehicle_118" type="scenario8_collision_car" depart="447.9" departLane="0" departPos="0" departSpeed="max" color="cyan">
        <route edges="1274037341#1 409634167#3" />
    </vehicle>
    <vehicle id="targeted_vehicle_119" type="scenario8_collision_car" depart="449.8" departLane="0" departPos="0" departSpeed="max" color="blue">
        <route edges="1274037341#1 179750980#0" />
    </vehicle>
    <vehicle id="targeted_vehicle_120" type="scenario8_collision_car" depart="459.2" departLane="0" departPos="0" departSpeed="max" color="yellow">
        <route edges="409634167#1 409634167#3" />
    </vehicle>
    <vehicle id="targeted_vehicle_121" type="scenario8_collision_car" depart="459.7" departLane="1" departPos="0" departSpeed="max" color="red">
        <route edges="179750964#5 858712304#0" />
    </vehicle>
    <vehicle id="targeted_vehicle_122" type="scenario8_collision_car" depart="461.7" departLane="0" departPos="0" departSpeed="max" color="blue">
        <route edges="1274037341#1 179750980#0" />
    </vehicle>
    <vehicle id="targeted_vehicle_123" type="scenario8_collision_car" depart="468.5" departLane="0" departPos="0" departSpeed="max" color="orange">
        <route edges="179750964#5 179750980#0" />
    </vehicle>
    <vehicle id="targeted_vehicle_124" type="scenario8_collision_car" depart="470.2" departLane="0" departPos="0" departSpeed="max" color="yellow">
        <route edges="409634167#1 409634167#3" />
    </vehicle>
    <vehicle id="targeted_vehicle_125" type="scenario8_collision_car" depart="474.9" departLane="0" departPos="0" departSpeed="max" color="cyan">
        <route edges="1274037341#1 409634167#3" />
    </vehicle>
    <vehicle id="targeted_vehicle_126" type="scenario8_collision_car" depart="475.5" departLane="0" departPos="0" departSpeed="max" color="orange">
        <route edges="179750964#5 179750980#0" />
    </vehicle>
    <vehicle id="targeted_vehicle_127" type="scenario8_collision_car" depart="480.5" departLane="0" departPos="0" departSpeed="max" color="cyan">
        <route edges="1274037341#1 409634167#3" />
    </vehicle>
    <vehicle id="targeted_vehicle_128" type="scenario8_collision_car" depart="481.7" departLane="1" departPos="0" departSpeed="max" color="red">
        <route edges="179750964#5 858712304#0" />
    </vehicle>
    <vehicle id="targeted_vehicle_129" type="scenario8_collision_car" depart="483.9" departLane="0" departPos="0" departSpeed="max" color="blue">
        <route edges="1274037341#1 179750980#0" />
    </vehicle>
    <vehicle id="targeted_vehicle_130" type="scenario8_collision_car" depart="486.2" departLane="1" departPos="0" departSpeed="max" color="red">
        <route edges="179750964#5 858712304#0" />
    </vehicle>
    <vehicle id="targeted_vehicle_131" type="scenario8_collision_car" depart="497.9" departLane="0" departPos="0" departSpeed="max" color="yellow">
        <route edges="409634167#1 409634167#3" />
    </vehicle>
    <vehicle id="targeted_vehicle_132" type="scenario8_collision_car" depart="502.2" departLane="1" departPos="0" departSpeed="max" color="red">
        <route edges="179750964#5 858712304#0" />
    </vehicle>
    <vehicle id="targeted_vehicle_133" type="scenario8_collision_car" depart="504.4" departLane="0" departPos="0" departSpeed="max" color="blue">
        <route edges="1274037341#1 179750980#0" />
    </vehicle>
    <vehicle id="targeted_vehicle_134" type="scenario8_collision_car" depart="515.9" departLane="1" departPos="0" departSpeed="max" color="green">
        <route edges="409634167#1 179750980#0" />
    </vehicle>
    <vehicle id="targeted_vehicle_135" type="scenario8_collision_car" depart="516.8" departLane="0" departPos="0" departSpeed="max" color="cyan">
        <route edges="1274037341#1 409634167#3" />
    </vehicle>
    <vehicle id="targeted_vehicle_136" type="scenario8_collision_car" depart="518.7" departLane="1" departPos="0" departSpeed="max" color="red">
        <route edges="179750964#5 858712304#0" />
    </vehicle>
    <vehicle id="targeted_vehicle_137" type="scenario8_collision_car" depart="524.1" departLane="1" departPos="0" departSpeed="max" color="red">
        <route edges="179750964#5 858712304#0" />
    </vehicle>
    <vehicle id="targeted_vehicle_138" type="scenario8_collision_car" depart="526.3" departLane="0" departPos="0" departSpeed="max" color="blue">
        <route edges="1274037341#1 179750980#0" />
    </vehicle>