<?xml version='1.0' encoding='UTF-8'?>
<routes xmlns:xsi="http://www.w3.org/2001/XMLSchema-instance" xsi:noNamespaceSchemaLocation="http://sumo.dlr.de/xsd/routes_file.xsd">
    <vType id="scenario8_collision_car" vClass="passenger" guiShape="passenger" length="5.00" width="1.80" minGap="0" maxSpeed="13.89" speedFactor="1.0" speedDev="0" accel="6.0" decel="9.0" emergencyDecel="12.0" apparentDecel="12.0" tau="0.1" sigma="0" lcStrategic="0" lcCooperative="0" lcSpeedGain="0" lcKeepRight="0" lcAssertive="10" jmIgnoreFoeProb="1" jmIgnoreJunctionFoeProb="1" jmIgnoreFoeSpeed="100" jmIgnoreKeepClearTime="0" jmStoplineGap="0" collisionMinGapFactor="0" />
    <vehicle id="targeted_vehicle_001" type="scenario8_collision_car" depart="16.1" departLane="0" departPos="0" departSpeed="13.89" color="cyan">
        <route edges="1274037341#1 409634167#3" />
    </vehicle>
    <vehicle id="targeted_vehicle_002" type="scenario8_collision_car" depart="23.6" departLane="0" departPos="0" departSpeed="13.89" color="yellow">
        <route edges="409634167#1 409634167#3" />
    </vehicle>
    <vehicle id="targeted_vehicle_003" type="scenario8_collision_car" depart="29.3" departLane="0" departPos="0" departSpeed="13.89" color="yellow">
        <route edges="409634167#1 409634167#3" />
    </vehicle>
    <vehicle id="targeted_vehicle_004" type="scenario8_collision_car" depart="35.9" departLane="1" departPos="0" departSpeed="13.89" color="red">
        <route edges="179750964#5 858712304#0" />
    </vehicle>
    <vehicle id="targeted_vehicle_005" type="scenario8_collision_car" depart="38.0" departLane="0" departPos="0" departSpeed="13.89" color="blue">
        <route edges="1274037341#1 179750980#0" />
    </vehicle>
    <vehicle id="targeted_vehicle_006" type="scenario8_collision_car" depart="47.6" departLane="1" departPos="0" departSpeed="13.89" color="red">
        <route edges="179750964#5 858712304#0" />
    </vehicle>
    <vehicle id="targeted_vehicle_007" type="scenario8_collision_car" depart="48.5" departLane="1" departPos="0" departSpeed="13.89" color="green">
        <route edges="409634167#1 179750980#0" />
    </vehicle>
    <vehicle id="targeted_vehicle_008" type="scenario8_collision_car" depart="49.9" departLane="0" departPos="0" departSpeed="13.89" color="blue">
        <route edges="1274037341#1 179750980#0" />
    </vehicle>
    <vehicle id="targeted_vehicle_009" type="scenario8_collision_car" depart="58.3" departLane="0" departPos="0" departSpeed="13.89" color="orange">
        <route edges="179750964#5 179750980#0" />
    </vehicle>
    <vehicle id="targeted_vehicle_010" type="scenario8_collision_car" depart="63.3" departLane="1" departPos="0" departSpeed="13.89" color="red">
        <route edges="179750964#5 858712304#0" />
    </vehicle>
    <vehicle id="targeted_vehicle_011" type="scenario8_collision_car" depart="65.5" departLane="0" departPos="0" departSpeed="13.89" color="blue">
        <route edges="1274037341#1 179750980#0" />
    </vehicle>
    <vehicle id="targeted_vehicle_012" type="scenario8_collision_car" depart="75.3" departLane="1" departPos="0" departSpeed="13.89" color="red">
        <route edges="179750964#5 858712304#0" />
    </vehicle>
    <vehicle id="targeted_vehicle_013" type="scenario8_collision_car" depart="77.5" departLane="0" departPos="0" departSpeed="13.89" color="blue">
        <route edges="1274037341#1 179750980#0" />
    </vehicle>
    <vehicle id="targeted_vehicle_014" type="scenario8_collision_car" depart="86.5" departLane="0" departPos="0" departSpeed="13.89" color="cyan">
        <route edges="1274037341#1 409634167#3" />
    </vehicle>
    <vehicle id="targeted_vehicle_015" type="scenario8_collision_car" depart="91.7" departLane="1" departPos="0" departSpeed="13.89" color="red">
        <route edges="179750964#5 858712304#0" />
    </vehicle>
    <vehicle id="targeted_vehicle_016" type="scenario8_collision_car" depart="94.1" departLane="0" departPos="0" departSpeed="13.89" color="blue">
        <route edges="1274037341#1 179750980#0" />
    </vehicle>
    <vehicle id="targeted_vehicle_017" type="scenario8_collision_car" depart="101.1" departLane="0" departPos="0" departSpeed="13.89" color="magenta">
        <route edges="1274037341#1 858712304#0" />
    </vehicle>
    <vehicle id="targeted_vehicle_018" type="scenario8_collision_car" depart="105.4" departLane="1" departPos="0" departSpeed="13.89" color="red">
        <route edges="179750964#5 858712304#0" />
    </vehicle>
    <vehicle id="targeted_vehicle_019" type="scenario8_collision_car" depart="107.4" departLane="0" departPos="0" departSpeed="13.89" color="blue">
        <route edges="1274037341#1 179750980#0" />
    </vehicle>
    <vehicle id="targeted_vehicle_020" type="scenario8_collision_car" depart="116.6" departLane="0" departPos="0" departSpeed="13.89" color="magenta">
        <route edges="1274037341#1 858712304#0" />
    </vehicle>
    <vehicle id="targeted_vehicle_021" type="scenario8_collision_car" depart="120.0" departLane="1" departPos="0" departSpeed="13.89" color="red">
        <route edges="179750964#5 858712304#0" />
    </vehicle>
    <vehicle id="targeted_vehicle_022" type="scenario8_collision_car" depart="122.2" departLane="0" departPos="0" departSpeed="13.89" color="blue">
        <route edges="1274037341#1 179750980#0" />
    </vehicle>
    <vehicle id="targeted_vehicle_023" type="scenario8_collision_car" depart="132.7" departLane="1" departPos="0" departSpeed="13.89" color="red">
        <route edges="179750964#5 858712304#0" />
    </vehicle>
    <vehicle id="targeted_vehicle_024" type="scenario8_collision_car" depart="134.8" departLane="0" departPos="0" departSpeed="13.89" color="blue">
        <route edges="1274037341#1 179750980#0" />
    </vehicle>
    <vehicle id="targeted_vehicle_025" type="scenario8_collision_car" depart="137.8" departLane="1" departPos="0" departSpeed="13.89" color="red">
        <route edges="179750964#5 858712304#0" />
    </vehicle>
    <vehicle id="targeted_vehicle_026" type="scenario8_collision_car" depart="146.5" departLane="1" departPos="0" departSpeed="13.89" color="red">
        <route edges="179750964#5 858712304#0" />
    </vehicle>
    <vehicle id="targeted_vehicle_027" type="scenario8_collision_car" depart="148.7" departLane="0" departPos="0" departSpeed="13.89" color="blue">
        <route edges="1274037341#1 179750980#0" />
    </vehicle>
    <vehicle id="targeted_vehicle_028" type="scenario8_collision_car" depart="160.8" departLane="1" departPos="0" departSpeed="13.89" color="red">
        <route edges="179750964#5 858712304#0" />
    </vehicle>
    <vehicle id="targeted_vehicle_029" type="scenario8_collision_car" depart="162.9" departLane="0" departPos="0" departSpeed="13.89" color="blue">
        <route edges="1274037341#1 179750980#0" />
    </vehicle>
    <vehicle id="targeted_vehicle_030" type="scenario8_collision_car" depart="168.1" departLane="1" departPos="0" departSpeed="13.89" color="red">
        <route edges="179750964#5 858712304#0" />
    </vehicle>
    <vehicle id="targeted_vehicle_031" type="scenario8_collision_car" depart="176.0" departLane="1" departPos="0" departSpeed="13.89" color="red">
        <route edges="179750964#5 858712304#0" />
    </vehicle>
    <vehicle id="targeted_vehicle_032" type="scenario8_collision_car" depart="178.4" departLane="0" departPos="0" departSpeed="13.89" color="blue">
        <route edges="1274037341#1 179750980#0" />
    </vehicle>
    <vehicle id="targeted_vehicle_033" type="scenario8_collision_car" depart="189.1" departLane="1" departPos="0" departSpeed="13.89" color="red">
        <route edges="179750964#5 858712304#0" />
    </vehicle>
    <vehicle id="targeted_vehicle_034" type="scenario8_collision_car" depart="191.4" departLane="0" departPos="0" departSpeed="13.89" color="blue">
        <route edges="1274037341#1 179750980#0" />
    </vehicle>
    <vehicle id="targeted_vehicle_035" type="scenario8_collision_car" depart="195.6" departLane="0" departPos="0" departSpeed="13.89" color="blue">
        <route edges="1274037341#1 179750980#0" />
    </vehicle>
    <vehicle id="targeted_vehicle_036" type="scenario8_collision_car" depart="197.6" departLane="1" departPos="0" departSpeed="13.89" color="red">
        <route edges="179750964#5 858712304#0" />
    </vehicle>
    <vehicle id="targeted_vehicle_037" type="scenario8_collision_car" depart="204.1" departLane="1" departPos="0" departSpeed="13.89" color="red">
        <route edges="179750964#5 858712304#0" />
    </vehicle>
    <vehicle id="targeted_vehicle_038" type="scenario8_collision_car" depart="206.3" departLane="0" departPos="0" departSpeed="13.89" color="blue">
        <route edges="1274037341#1 179750980#0" />
    </vehicle>
    <vehicle id="targeted_vehicle_039" type="scenario8_collision_car" depart="213.3" departLane="0" departPos="0" departSpeed="13.89" color="yellow">
        <route edges="409634167#1 409634167#3" />
    </vehicle>
    <vehicle id="targeted_vehicle_040" type="scenario8_collision_car" depart="216.2" departLane="1" departPos="0" departSpeed="13.89" color="red">
        <route edges="179750964#5 858712304#0" />
    </vehicle>
    <vehicle id="targeted_vehicle_041" type="scenario8_collision_car" depart="218.5" departLane="0" departPos="0" departSpeed="13.89" color="blue">
        <route edges="1274037341#1 179750980#0" />
    </vehicle>
    <vehicle id="targeted_vehicle_042" type="scenario8_collision_car" depart="227.3" departLane="0" departPos="0" departSpeed="13.89" color="cyan">
        <route edges="1274037341#1 409634167#3" />
    </vehicle>
    <vehicle id="targeted_vehicle_043" type="scenario8_collision_car" depart="230.7" departLane="1" departPos="0" departSpeed="13.89" color="red">
        <route edges="179750964#5 858712304#0" />
    </vehicle>
    <vehicle id="targeted_vehicle_044" type="scenario8_collision_car" depart="232.9" departLane="0" departPos="0" departSpeed="13.89" color="blue">
        <route edges="1274037341#1 179750980#0" />
    </vehicle>
    <vehicle id="targeted_vehicle_045" type="scenario8_collision_car" depart="248.8" departLane="1" departPos="0" departSpeed="13.89" color="green">
        <route edges="409634167#1 179750980#0" />
    </vehicle>
    <vehicle id="targeted_vehicle_046" type="scenario8_collision_car" depart="249.7" departLane="0" departPos="0" departSpeed="13.89" color="orange">
        <route edges="179750964#5 179750980#0" />
    </vehicle>
    <vehicle id="targeted_vehicle_047" type="scenario8_collision_car" depart="253.3" departLane="0" departPos="0" departSpeed="13.89" color="orange">
        <route edges="179750964#5 179750980#0" />
    </vehicle>
    <vehicle id="targeted_vehicle_048" type="scenario8_collision_car" depart="261.6" departLane="0" departPos="0" departSpeed="13.89" color="cyan">
        <route edges="1274037341#1 409634167#3" />
    </vehicle>
    <vehicle id="targeted_vehicle_049" type="scenario8_collision_car" depart="273.2" departLane="1" departPos="0" departSpeed="13.89" color="green">
        <route edges="409634167#1 179750980#0" />
    </vehicle>
    <vehicle id="targeted_vehicle_050" type="scenario8_collision_car" depart="274.8" departLane="0" departPos="0" departSpeed="13.89" color="orange">
        <route edges="179750964#5 179750980#0" />
    </vehicle>
</routes>